#!/home/davidho/anaconda3/bin/python
# -*- coding: utf-8 -*-

"""
Created on Wed Jan 22 15:52:24 2014

Script to plot the seismograms generated by SPECFEM2D.
The arguments must be correct paths to existing 2D seismogram files or
an existing option (--hold, --grid)

@author: Alexis Bottero (alexis.bottero@gmail.com)
"""

from __future__ import (absolute_import, division, print_function)

import argparse

import numpy as np  # NumPy (multidimensional arrays, linear algebra, ...)
import matplotlib.pyplot as plt  # Matplotlib's pyplot: MATLAB-like syntax
from mpl_toolkits.mplot3d import Axes3D
from matplotlib import animation


parser = argparse.ArgumentParser(
    description='Animate seismogram output')
parser.add_argument('files', nargs='+', type=argparse.FileType('r'),
                    help='Files to be plotted')
args = parser.parse_args()

fig = plt.figure()
ax = fig.add_subplot(111, projection='3d')

frames = []

for seismo in args.files:
    data = np.loadtxt(seismo)
    frame = plt.plot(data[:, 0], data[:, 1], zs=data[:, 2], color="b")
    frames.append(frame)

anim = animation.ArtistAnimation(fig, frames, interval = 200,
    blit = True)
anim.save("animation.mp4", writer="ffmpeg")
